LAMMPS (12 Dec 2018)
#SrTiO3BaSnO3-1

atom_style      charge
units           metal
dimension       3
boundary        p p p

neighbor 0.35 bin
neigh_modify every 20 delay 0 check no #neigh_modify every 1 delay 0 check yes one 1152 page 1152000

read_data Hetero_Bulk-min
  orthogonal box = (0.5857 0.5857 -25.448) to (78.31 78.31 25.448)
  reading atoms ...
  22830 atoms

pair_style buck/coul/long 8.0
kspace_style ewald 1.0e-6

pair_coeff 1 1 0.00 0.01 0.00 #Sr Sr
pair_coeff 1 2 0.00 0.01 0.00 #Sr Ti
pair_coeff 1 3 682.172 0.3945 0.00 #Sr O
pair_coeff 1 4 0.00 0.01 0.00 #Sr Ba
pair_coeff 1 5 0.00 0.01 0.00 #Sr Sn
pair_coeff 2 2 0.00 0.01 0.00 #Ti Ti
pair_coeff 2 3 2179.122 0.30384 8.986 #Ti O
pair_coeff 2 4 0.00 0.01 0.00 #Ti Ba
pair_coeff 2 5 0.00 0.01 0.00 #Ti Sn
pair_coeff 3 3 9547.96 0.21916 32.00 #O O
pair_coeff 3 4 873.829 0.3863 0.00 #O Ba
pair_coeff 3 5 1056.8 0.3683 0.00 #O Sn
pair_coeff 4 4 0.00 0.01 0.00 #Ba Ba
pair_coeff 4 5 0.00 0.01 0.00 #Ba Sn
pair_coeff 5 5 0.00 0.01 0.00 #Sn Sn

#--------------- Simulation control parameters ----------------------------------------------------------
variable        T equal 800                   # Kelvin
variable        V equal vol                    # A^3
variable        dt equal 0.001                 #  1e-12 s, 1 fs
variable        NRUNNVT equal 2000
variable        NRUNNPT equal 2000
variable        NRUNanneal equal 4000
variable        NRUNNVE equal 2000
variable        snapprint equal 2000
variable        Lx equal xhi-xlo
variable        Ly equal yhi-ylo
variable        Lz equal zhi-zlo
Lx = 77.7243 A
Ly = 77.7243 A
Lz = 50.896 A
timestep        0.001
thermo_style    custom step temp pe etotal press pxx pyy pzz lx ly lz
# -------------- Print structure -----------------------
dump            snapxyz all custom 2000 sisnap.lammpstrj id type x y z
# -------------- Relax Structure at 0K --------------------------
fix             filmrelax all box/relax x 0 y 0 z 0 couple none
minimize        1.0e-6 1.0e-6 100000 10000000
Ewald initialization ...
  G vector (1/distance) = 0.468126
  estimated absolute RMS force accuracy = 2.32126e-05
  estimated relative force accuracy = 1.61202e-06
  KSpace vectors: actual max1d max3d = 119067 44 352484
                  kxmax kymax kzmax  = 44 44 29
  update every 1 steps, delay 0 steps, check yes
Step Temp PotEng TotEng Press Pxx Pyy Pzz Lx Ly Lz
0            0   -684036.15   -684036.15   -39667.929   -28560.257   -28560.313   -61883.218      77.7243      77.7243       50.896
Loop time of 303.9 on 4 procs for 75 steps with 22830 atoms

Minimization stats:
  Stopping criterion = energy tolerance
  Energy initial, next-to-last, final =
  Force two-norm initial, final = 14181.4 6521.86
  Force max component initial, final = 11875.7 6357.8
  Final line search alpha, max atom move = 1.55661e-08 9.89664e-05
  Iterations, force evaluations = 75 75

min_modify      dmax 0.2
thermo          100
write_restart   restart.min.*
Ewald initialization ...
  G vector (1/distance) = 0.46823
  estimated absolute RMS force accuracy = 2.48459e-05
  estimated relative force accuracy = 1.72545e-06
  KSpace vectors: actual max1d max3d = 120141 43 329251
                  kxmax kymax kzmax  = 43 43 29
# -------------- NVT Thermalization ------------------------------
restart         2000 restart
velocity        all create $T 4928459 mom yes rot yes dist gaussian
velocity        all create 800 4928459 mom yes rot yes dist gaussian
fix             NVT all nvt temp $T $T 0.05 tchain 10
fix             NVT all nvt temp 800 $T 0.05 tchain 10
fix             NVT all nvt temp 800 800 0.05 tchain 10
run             2000
Ewald initialization ...
  G vector (1/distance) = 0.46823
  estimated absolute RMS force accuracy = 2.48459e-05
  estimated relative force accuracy = 1.72545e-06
  KSpace vectors: actual max1d max3d = 120141 43 329251
                  kxmax kymax kzmax  = 43 43 29
Step Temp PotEng TotEng Press Pxx Pyy Pzz Lx Ly Lz
75          800   -684121.69   -681760.99   -6400.7434    2964.6769    2836.7451   -25003.652     77.53255     77.53255     50.51428
Averages over the last 11 of 22 rows, steps 1100 to 2075:
Temp PotEng TotEng Press Pxx Pyy Pzz Lx Ly Lz
798.588 -681965 -679609 9533.55 22082 22230.9 -15712.2 77.5326 77.5326 50.5143
Loop time of 8049.15 on 4 procs for 2000 steps with 22830 atoms

unfix           NVT
write_restart   restart.NVT.*
Ewald initialization ...
  G vector (1/distance) = 0.46823
  estimated absolute RMS force accuracy = 2.48459e-05
  estimated relative force accuracy = 1.72545e-06
  KSpace vectors: actual max1d max3d = 120141 43 329251
                  kxmax kymax kzmax  = 43 43 29
# ------------ Annealing -----------------------------------------
fix             equil all langevin $T 1 0.05 4876459 tally yes zero yes
fix             equil all langevin 800 1 0.05 4876459 tally yes zero yes
fix             NVE all nve
run             4000
Ewald initialization ...
  G vector (1/distance) = 0.46823
  estimated absolute RMS force accuracy = 2.48459e-05
  estimated relative force accuracy = 1.72545e-06
  KSpace vectors: actual max1d max3d = 120141 43 329251
                  kxmax kymax kzmax  = 43 43 29
Step Temp PotEng TotEng Press Pxx Pyy Pzz Lx Ly Lz
2075    802.02975   -681939.42   -679572.73    9704.2647    22438.025    22355.658   -15680.888     77.53255     77.53255     50.51428
Averages over the last 21 of 42 rows, steps 4100 to 6075:
Temp PotEng TotEng Press Pxx Pyy Pzz Lx Ly Lz
205.922 -683705 -683097 -9264.23 4011.27 4491.83 -36295.8 77.5326 77.5326 50.5143
Loop time of 16114.9 on 4 procs for 4000 steps with 22830 atoms

unfix           equil
unfix           NVE
write_restart   restart.anneal.300.*
Ewald initialization ...
  G vector (1/distance) = 0.46823
  estimated absolute RMS force accuracy = 2.48459e-05
  estimated relative force accuracy = 1.72545e-06
  KSpace vectors: actual max1d max3d = 120141 43 329251
                  kxmax kymax kzmax  = 43 43 29

dump            dump_min all xyz 1 Anneal-1-min.xyz

dump_modify     dump_min element Sr Ti O Ba Sn

run 1
Ewald initialization ...
  G vector (1/distance) = 0.46823
  estimated absolute RMS force accuracy = 2.48459e-05
  estimated relative force accuracy = 1.72545e-06
  KSpace vectors: actual max1d max3d = 120141 43 329251
                  kxmax kymax kzmax  = 43 43 29
Step Temp PotEng TotEng Press Pxx Pyy Pzz Lx Ly Lz
6075    11.039737   -684279.17   -684246.59   -15456.031   -2067.0634   -1571.7867   -42729.243     77.53255     77.53255     50.51428
Loop time of 4.02265 on 4 procs for 1 steps with 22830 atoms
